Version 4
SHEET 1 1608 744
WIRE 928 -304 928 -320
WIRE 320 -288 320 -320
WIRE 928 -224 928 -304
WIRE 320 -208 320 -288
WIRE 864 -160 784 -160
WIRE 1104 -160 992 -160
WIRE 256 -144 192 -144
WIRE 496 -144 384 -144
WIRE 16 -64 16 -96
WIRE 624 -64 624 -96
WIRE 928 -48 928 -96
WIRE 320 -32 320 -80
WIRE 320 -16 320 -32
WIRE 928 -16 928 -48
WIRE 624 0 624 -64
WIRE 16 16 16 -64
WIRE 192 64 192 -144
WIRE 192 64 176 64
WIRE 256 64 192 64
WIRE 496 64 496 -144
WIRE 560 64 496 64
WIRE 784 64 784 -160
WIRE 784 64 688 64
WIRE 864 64 784 64
WIRE 1104 64 1104 -160
WIRE 1152 64 1104 64
WIRE 1408 64 1216 64
WIRE 1552 64 1472 64
WIRE 1568 64 1552 64
WIRE -208 80 -224 80
WIRE -48 80 -208 80
WIRE 176 80 176 64
WIRE 176 80 80 80
WIRE 496 80 496 64
WIRE 496 80 352 80
WIRE 816 80 768 80
WIRE 1104 80 1104 64
WIRE 1104 80 960 80
WIRE 256 96 160 96
WIRE 816 96 816 80
WIRE 864 96 816 96
WIRE 624 192 624 128
WIRE 16 208 16 144
WIRE 624 208 624 192
WIRE 16 224 16 208
WIRE 1104 224 1104 80
WIRE 1152 224 1104 224
WIRE 1520 224 1216 224
WIRE 1552 224 1520 224
WIRE -208 320 -224 320
WIRE -32 320 -208 320
WIRE 160 320 160 96
WIRE 160 320 32 320
WIRE 768 320 768 80
WIRE 768 320 160 320
WIRE 448 544 128 544
WIRE 496 544 448 544
WIRE -176 624 -224 624
WIRE -48 624 -176 624
WIRE 128 624 128 544
WIRE 128 624 16 624
WIRE 240 624 128 624
WIRE 464 624 304 624
WIRE 496 624 464 624
FLAG -208 80 D
FLAG -208 320 RN
FLAG -176 624 CK
FLAG 448 544 CN
FLAG 464 624 C
FLAG 1552 64 Q
FLAG 1520 224 QN
FLAG 16 208 C
FLAG 16 -64 CN
FLAG 320 -32 CN
FLAG 320 -288 C
FLAG 624 192 CN
FLAG 624 -64 C
FLAG 928 -304 CN
FLAG 928 -48 C
FLAG -224 160 0
FLAG -224 400 0
FLAG -224 704 0
SYMBOL TriState 16 80 R0
SYMATTR InstName X1
SYMBOL TriState 320 -144 M0
SYMATTR InstName X2
SYMBOL TriState 624 64 R0
SYMATTR InstName X3
SYMBOL TriState 928 -160 M0
SYMATTR InstName X4
SYMBOL Nor2 320 80 R0
SYMATTR InstName X5
SYMBOL Nor2 928 80 R0
SYMATTR InstName X6
SYMBOL Not 1184 64 R0
SYMATTR InstName X7
SYMBOL Not 1440 64 R0
SYMATTR InstName X8
SYMBOL Not 1184 224 R0
SYMATTR InstName X9
SYMBOL Not 0 320 R0
SYMATTR InstName X10
SYMBOL Not -16 624 R0
SYMATTR InstName X11
SYMBOL Not 272 624 R0
SYMATTR InstName X12
SYMBOL voltage -224 64 R0
WINDOW 123 0 0 Left 0
WINDOW 39 0 0 Left 0
SYMATTR InstName V1
SYMATTR Value PULSE(0 1 100p 50p 50p 15m 30m )
SYMBOL voltage -224 304 R0
WINDOW 123 0 0 Left 0
WINDOW 39 0 0 Left 0
SYMATTR InstName V2
SYMATTR Value PULSE(1 0 10p 10p 10p 350m 700m)
SYMBOL voltage -224 608 R0
WINDOW 123 0 0 Left 0
WINDOW 39 0 0 Left 0
SYMATTR InstName V3
SYMATTR Value PULSE(0 1 10p 100p 100p 20m 40m)
TEXT -256 728 Left 2 !.tran 700m
TEXT 792 464 Left 2 !.include 130nm_bulk.lib
TEXT -968 248 Left 2 !.meas tpd TRIG V(D)=0.6 FALL=1 TARG V(Q)=0.6 RISE=1
TEXT -968 312 Left 2 !.meas tcd TRIG V(D)=0.6 FALL=1 TARG V(Q)=0.6 FALL=1
TEXT -1016 464 Left 2 !.meas tpcq TRIG V(CK)=0.6 RISE=1 TARG V(Q)=0.6 RISE=1
TEXT -1008 512 Left 2 !.meas tccq TRIG V(CK)=0.6 RISE=1 TARG V(Q)=0.6 FALL=1
TEXT -1016 560 Left 2 !.meas tpdq TRIG V(D)=0.6 RISE=1 TARG V(Q)=0.6 RISE=1
TEXT -1016 608 Left 2 !.meas tcdq TRIG V(D)=0.6 RISE=1 TARG V(Q)=0.6 FALL=1
